<configuration>
    <input>
        <net-file value="TrafficAnomalyProject.net.xml" />
        <route-files value="TrafficAnomalyProject.rou.xml" />
    </input>
    <output>
        <fcd-output value="traffic_output.xml" />
    </output>
    <time>
        <begin value="0" />
        <end value="100" />
    </time>
</configuration>
