<?xml version="1.0" encoding="UTF-8"?>

<!-- generated on 2024-12-27 16:09:08 by Eclipse SUMO netconvert Version 1.21.0
<netconvertConfiguration xmlns:xsi="http://www.w3.org/2001/XMLSchema-instance" xsi:noNamespaceSchemaLocation="http://sumo.dlr.de/xsd/netconvertConfiguration.xsd">

    <input>
        <sumo-net-file value="TrafficAnomalyProject.net.xml"/>
    </input>

    <output>
        <output-file value="TrafficAnomalyProject.net.xml"/>
    </output>

    <processing>
        <geometry.min-radius.fix.railways value="false"/>
        <geometry.max-grade.fix value="false"/>
        <offset.disable-normalization value="true"/>
        <lefthand value="0"/>
    </processing>

    <junctions>
        <no-internal-links value="true"/>
        <no-turnarounds value="true"/>
        <junctions.corner-detail value="5"/>
        <junctions.limit-turn-speed value="5.50"/>
        <rectangular-lane-cut value="0"/>
    </junctions>

    <pedestrian>
        <walkingareas value="0"/>
    </pedestrian>

</netconvertConfiguration>
-->

<net version="1.20" junctionCornerDetail="5" limitTurnSpeed="5.50" xmlns:xsi="http://www.w3.org/2001/XMLSchema-instance" xsi:noNamespaceSchemaLocation="http://sumo.dlr.de/xsd/net_file.xsd">

    <location netOffset="0.00,0.00" convBoundary="-2792.59,3913.21,-2581.64,3913.21" origBoundary="-10000000000.00,-10000000000.00,10000000000.00,10000000000.00" projParameter="!"/>

    <edge id="E1" from="J6" to="J7" priority="-1">
        <lane id="E1_0" index="0" speed="13.89" length="110.95" shape="-2792.59,3911.61 -2681.64,3911.61"/>
    </edge>
    <edge id="E2" from="J7" to="J8" priority="-1">
        <lane id="E2_0" index="0" speed="13.89" length="100.00" shape="-2681.64,3911.61 -2581.64,3911.61"/>
    </edge>

    <junction id="J6" type="dead_end" x="-2792.59" y="3913.21" incLanes="" intLanes="" shape="-2792.59,3913.21 -2792.59,3910.01"/>
    <junction id="J7" type="dead_end" x="-2681.64" y="3913.21" incLanes="E1_0" intLanes="" shape="-2681.64,3913.21 -2681.64,3910.01 -2681.64,3913.21"/>
    <junction id="J8" type="dead_end" x="-2581.64" y="3913.21" incLanes="E2_0" intLanes="" shape="-2581.64,3910.01 -2581.64,3913.21"/>

</net>
