<routes>
    <vType id="car" accel="1.0" decel="4.5" maxSpeed="20" length="5" />
    <route id="route0" edges="E1" />
    <flow id="flow0" type="car" route="route0" begin="0" end="100" number="50" />
</routes>
